LTspice 24.1.9 for Windows
Circuit: C:\Users\reyco\Downloads\48-5 V\Draft1.net
Start Time: Mon Sep 29 17:36:59 2025
solver = Normal
Maximum thread count: 4
tnom = 27
temp = 27
method = trap
WARNING: Node n002 is floating.

Direct Newton iteration failed to find .op point.  (Use ".option noopiter" to skip.)
Starting Gmin stepping
Gmin = 10
Gmin = 1.07374
Gmin = 0.115292
Gmin = 0.0123794
Gmin = 0.00132923
Gmin = 0.000142725
Gmin = 1.5325e-05
Gmin = 1.6455e-06
Gmin = 1.76685e-07
Gmin = 1.89714e-08
Gmin = 2.03704e-09
Gmin = 2.18725e-10
Gmin = 2.34854e-11
Gmin = 2.52173e-12
Gmin = 2.70769e-13
Terminal Gmin changed to 1e-14
Gmin = 4.54274e-14
vernier = 0.5
vernier = 0.666667
Gmin = 1.38289e-14
Terminal Gmin changed to 1e-15
vernier = 0.888888
Gmin = 3.84602e-15
vernier = 0.444444
vernier = 0.222222
Gmin = 1.53564e-15
vernier = 0.111111
vernier = 0.0555555
vernier = 0.0277778
Gmin = 1.36774e-15
vernier = 0.0138889
vernier = 0.00694444
vernier = 0.00347222
vernier = 0.00173611
vernier = 0.000868055
Gmin = 1.37485e-15
vernier = 0.000434028
Gmin = 0
Gmin stepping failed

Starting source stepping with srcstepmethod=0
Source Step = 3.0303%
Source Step = 12.1212%
Source Step = 13.6364%
Source Step = 14.027%
Source Step = 14.0714%
Source Step = 14.101%
Source Step = 14.1306%
Source Step = 14.1602%
Source Step = 14.1897%
Source Step = 14.2193%
Source Step = 14.2489%
Source Step = 14.2785%
Source Step = 14.3081%
vernier = 0.00146484
Source Step = 14.3422%
Source Step = 14.3865%
Source Step = 14.4309%
Source Step = 14.4753%
Source Step = 14.5197%
vernier = 0.00219727
Source Step = 14.5685%
Source Step = 14.6351%
Source Step = 14.7017%
Source Step = 14.7683%
Source Step = 14.8349%
vernier = 0.0032959
Source Step = 14.9048%
Source Step = 15.0047%
Source Step = 15.1045%
Source Step = 15.2044%
Source Step = 15.3043%
Source Step = 15.4042%
vernier = 0.00494385
Source Step = 15.554%
Source Step = 15.7038%
Source Step = 15.8536%
Source Step = 16.0034%
Source Step = 16.1532%
vernier = 0.00741577
Source Step = 16.3705%
Source Step = 16.5952%
Source Step = 16.8199%
Source Step = 17.0446%
Source Step = 17.2693%
vernier = 0.0111237
Source Step = 17.584%
Source Step = 17.921%
Source Step = 18.2581%
Source Step = 18.5952%
Source Step = 18.9323%
vernier = 0.0166855
Source Step = 19.3873%
Source Step = 19.893%
Source Step = 20.3986%
Source Step = 20.9042%
Source Step = 21.4098%
vernier = 0.0250282
Source Step = 22.0671%
Source Step = 22.8256%
Source Step = 23.584%
Source Step = 24.3424%
Source Step = 25.1008%
vernier = 0.0375423
Source Step = 26.0489%
Source Step = 27.1865%
Source Step = 28.3242%
Source Step = 29.4618%
Source Step = 30.5995%
vernier = 0.0563135
Source Step = 31.9646%
Source Step = 33.6711%
Source Step = 35.3776%
Source Step = 37.0841%
Source Step = 38.7905%
vernier = 0.0844703
Source Step = 40.753%
Source Step = 43.3127%
Source Step = 45.8724%
Source Step = 48.4321%
Source Step = 50.9918%
vernier = 0.126705
Source Step = 53.8075%
Source Step = 57.647%
Source Step = 60.8147%
Source Step = 61.7745%
Source Step = 62.7344%
Source Step = 63.1064%
Source Step = 63.1664%
Source Step = 63.2264%
Source Step = 63.2864%
Source Step = 63.3464%
Source Step = 63.4064%
vernier = 0.00296966
Source Step = 63.4784%
Source Step = 63.5683%
Source Step = 63.6583%
Source Step = 63.7483%
Source Step = 63.8383%
vernier = 0.00445449
Source Step = 63.9418%
Source Step = 64.0768%
Source Step = 64.2118%
Source Step = 64.3468%
Source Step = 64.4817%
vernier = 0.00668173
Source Step = 64.6302%
Source Step = 64.8327%
Source Step = 65.0352%
Source Step = 65.2377%
Source Step = 65.4401%
vernier = 0.0100226
Source Step = 65.6527%
Source Step = 65.9564%
Source Step = 66.2602%
Source Step = 66.5639%
Source Step = 66.8676%
Source Step = 67.1713%
vernier = 0.0150339
Source Step = 67.6269%
Source Step = 68.0824%
Source Step = 68.538%
Source Step = 68.9936%
Source Step = 69.4492%
vernier = 0.0225508
Source Step = 70.1097%
Source Step = 70.7931%
Source Step = 71.4765%
Source Step = 72.1598%
Source Step = 72.8432%
vernier = 0.0338263
Source Step = 73.7999%
Source Step = 74.8249%
Source Step = 75.85%
Source Step = 76.875%
Source Step = 77.9%
vernier = 0.0507394
Source Step = 79.2838%
Source Step = 80.8214%
Source Step = 82.359%
Source Step = 83.8965%
Source Step = 85.4341%
vernier = 0.0761091
Source Step = 87.4329%
Source Step = 89.7392%
Source Step = 92.0456%
vernier = 0.0190273
Source Step = 91.9086%
Source Step = 91.9447%
Source Step = 91.9807%
Source Step = 92.0167%
Source Step = 92.0528%
Source Step = 92.0888%
Source Step = 92.1248%
Source Step = 92.1609%
Source Step = 92.1969%
Source Step = 92.233%
Source Step = 92.269%
Source Step = 92.305%
Source Step = 92.3411%
Source Step = 92.3771%
Source Step = 92.4131%
Source Step = 92.4492%
Source Step = 92.4852%
Source Step = 92.5212%
Source Step = 92.5573%
Source Step = 92.5933%
Source Step = 92.6294%
Source Step = 92.6654%
Source Step = 92.7014%
Source Step = 92.7375%
Source Step = 92.7735%
Trouble finding operating point....skipping operating point for Transient analysis.

Simulation stopped by user.
Total elapsed time: 1.454 seconds.

Files loaded:
C:\Users\reyco\Downloads\48-5 V\Draft1.net
C:\Users\reyco\AppData\Local\LTspice\lib\cmp\standard.dio

